# generated using pymatgen
data_NiPS3
_cell_length_a   5.82000
_cell_length_b   10.0800
_cell_length_c   100.00
_cell_angle_alpha   90.00000
_cell_angle_beta   106.00000
_cell_angle_gamma   90.00000

loop_
 _atom_site_type_symbol
 _atom_site_label
 _atom_site_symmetry_multiplicity
 _atom_site_fract_x
 _atom_site_fract_y
 _atom_site_fract_z
 _atom_site_occupancy
   N1  A1  1   0.00000 0.00000 0.00000  1
   N2  B1  1   0.50000 0.16666 0.00000  1
   N3  C1  1   0.50000 0.50000 0.00000  1
   N4  D1  1   0.00000 0.66667 0.00000  1
