# generated using pymatgen
data_Y3Fe5O12
_symmetry_space_group_name_H-M   'P 1'
_cell_length_a   10.87724221
_cell_length_b   10.87724221
_cell_length_c   10.87724221
_cell_angle_alpha   109.47122063
_cell_angle_beta   109.47122063
_cell_angle_gamma   109.47122063
_symmetry_Int_Tables_number   1
_chemical_formula_structural   Y3Fe5O12
_chemical_formula_sum   'Y12 Fe20 O48'
_cell_volume   990.68253710
_cell_formula_units_Z   4
loop_
 _symmetry_equiv_pos_site_id
 _symmetry_equiv_pos_as_xyz
  1  'x, y, z'
loop_
 _atom_site_type_symbol
 _atom_site_label
 _atom_site_symmetry_multiplicity
 _atom_site_fract_x
 _atom_site_fract_y
 _atom_site_fract_z
 _atom_site_occupancy
  Y  Y1  1  0.250000  0.375000  0.125000  1
  Y  Y2  1  0.625000  0.250000  0.875000  1
  Y  Y3  1  0.750000  0.625000  0.875000  1
  Y  Y4  1  0.750000  0.125000  0.375000  1
  Y  Y5  1  0.875000  0.750000  0.625000  1
  Y  Y6  1  0.250000  0.875000  0.625000  1
  Y  Y7  1  0.625000  0.875000  0.750000  1
  Y  Y8  1  0.125000  0.375000  0.750000  1
  Y  Y9  1  0.375000  0.750000  0.125000  1
  Y  Y10  1  0.375000  0.125000  0.250000  1
  Y  Y11  1  0.875000  0.625000  0.250000  1
  Y  Y12  1  0.125000  0.250000  0.375000  1
  Fe  Fe13  1  0.875000  0.250000  0.125000  1
  Fe  Fe14  1  0.250000  0.625000  0.375000  1
  Fe  Fe15  1  1.000000  0.500000  0.500000  1
  Fe  Fe16  1  0.250000  0.125000  0.875000  1
  Fe  Fe17  1  0.500000  1.000000  0.000000  1
  Fe  Fe18  1  0.625000  0.375000  0.250000  1
  Fe  Fe19  1  0.500000  1.000000  0.500000  1
  Fe  Fe20  1  0.375000  0.625000  0.750000  1
  Fe  Fe21  1  0.625000  0.750000  0.375000  1
  Fe  Fe22  1  0.875000  0.125000  0.750000  1
  Fe  Fe23  1  1.000000  0.500000  1.000000  1
  Fe  Fe24  1  0.125000  0.875000  0.250000  1
  Fe  Fe25  1  0.000000  0.000000  0.000000  1
  Fe  Fe26  1  0.750000  0.875000  0.125000  1
  Fe  Fe27  1  0.375000  0.250000  0.625000  1
  Fe  Fe28  1  1.000000  1.000000  0.500000  1
  Fe  Fe29  1  0.125000  0.750000  0.875000  1
  Fe  Fe30  1  0.750000  0.375000  0.625000  1
  Fe  Fe31  1  0.500000  0.500000  0.500000  1
  Fe  Fe32  1  0.500000  0.500000  0.000000  1
  O  O33  1  0.625127  0.416972  0.094151  1
  O  O34  1  0.469024  0.594151  0.177179  1
  O  O35  1  0.905849  0.030976  0.322821  1
  O  O36  1  0.594151  0.177179  0.469024  1
  O  O37  1  0.530976  0.625127  0.708155  1
  O  O38  1  0.083028  0.874873  0.405849  1
  O  O39  1  0.969024  0.791845  0.874873  1
  O  O40  1  0.916972  0.125127  0.594151  1
  O  O41  1  0.583028  0.905849  0.374873  1
  O  O42  1  0.677179  0.094151  0.969024  1
  O  O43  1  0.125127  0.030976  0.208155  1
  O  O44  1  0.969024  0.677179  0.094151  1
  O  O45  1  0.905849  0.374873  0.583028  1
  O  O46  1  0.677179  0.083028  0.708155  1
  O  O47  1  0.094151  0.625127  0.416972  1
  O  O48  1  0.822821  0.530976  0.405849  1
  O  O49  1  0.822821  0.791845  0.416972  1
  O  O50  1  0.708155  0.677179  0.083028  1
  O  O51  1  0.625127  0.708155  0.530976  1
  O  O52  1  0.322821  0.916972  0.291845  1
  O  O53  1  0.094151  0.969024  0.677179  1
  O  O54  1  0.125127  0.594151  0.916972  1
  O  O55  1  0.874873  0.405849  0.083028  1
  O  O56  1  0.405849  0.822821  0.530976  1
  O  O57  1  0.874873  0.969024  0.791845  1
  O  O58  1  0.291845  0.469024  0.374873  1
  O  O59  1  0.291845  0.322821  0.916972  1
  O  O60  1  0.791845  0.874873  0.969024  1
  O  O61  1  0.177179  0.208155  0.583028  1
  O  O62  1  0.030976  0.322821  0.905849  1
  O  O63  1  0.583028  0.177179  0.208155  1
  O  O64  1  0.322821  0.905849  0.030976  1
  O  O65  1  0.530976  0.405849  0.822821  1
  O  O66  1  0.374873  0.291845  0.469024  1
  O  O67  1  0.030976  0.208155  0.125127  1
  O  O68  1  0.208155  0.125127  0.030976  1
  O  O69  1  0.416972  0.094151  0.625127  1
  O  O70  1  0.791845  0.416972  0.822821  1
  O  O71  1  0.208155  0.583028  0.177179  1
  O  O72  1  0.177179  0.469024  0.594151  1
  O  O73  1  0.469024  0.374873  0.291845  1
  O  O74  1  0.405849  0.083028  0.874873  1
  O  O75  1  0.374873  0.583028  0.905849  1
  O  O76  1  0.916972  0.291845  0.322821  1
  O  O77  1  0.416972  0.822821  0.791845  1
  O  O78  1  0.083028  0.708155  0.677179  1
  O  O79  1  0.708155  0.530976  0.625127  1
  O  O80  1  0.594151  0.916972  0.125127  1
